Version 4
SHEET 1 1016 1816
WIRE -1808 32 -1904 32
WIRE -1136 32 -1728 32
WIRE -1424 176 -1424 144
WIRE -1392 176 -1424 176
WIRE -1392 192 -1392 176
WIRE -1424 288 -1424 176
WIRE -1392 288 -1392 272
WIRE -1904 304 -1904 32
WIRE -1856 304 -1904 304
WIRE -1552 320 -1792 320
WIRE -1440 320 -1472 320
WIRE -1136 320 -1136 32
WIRE -1136 320 -1376 320
WIRE -1024 320 -1136 320
WIRE -656 320 -944 320
WIRE -2304 336 -2304 304
WIRE -2256 336 -2304 336
WIRE -2112 336 -2176 336
WIRE -1984 336 -2032 336
WIRE -1856 336 -1904 336
WIRE -2304 368 -2304 336
WIRE -2304 464 -2304 448
WIRE -656 496 -656 320
WIRE -112 496 -656 496
WIRE -656 544 -656 496
WIRE -112 544 -208 544
WIRE -208 560 -208 544
WIRE 272 608 64 608
WIRE 288 608 272 608
WIRE -208 672 -208 640
WIRE -112 672 -208 672
WIRE -656 720 -656 624
WIRE -112 720 -656 720
WIRE -112 864 -272 864
WIRE -112 912 -208 912
WIRE -208 928 -208 912
WIRE 512 976 64 976
WIRE 528 976 512 976
WIRE -208 1040 -208 1008
WIRE -112 1040 -208 1040
WIRE -112 1088 -496 1088
WIRE -496 1184 -496 1088
WIRE -400 1184 -496 1184
WIRE -272 1184 -272 864
WIRE -272 1184 -320 1184
WIRE 272 1184 -272 1184
WIRE -16 1328 -16 1296
WIRE 16 1328 -16 1328
WIRE 16 1344 16 1328
WIRE -16 1440 -16 1328
WIRE 16 1440 16 1424
WIRE -656 1456 -656 720
WIRE -496 1456 -496 1184
WIRE -496 1456 -656 1456
WIRE -448 1456 -496 1456
WIRE -144 1472 -384 1472
WIRE -32 1472 -64 1472
WIRE 272 1472 272 1184
WIRE 272 1472 32 1472
WIRE -448 1488 -512 1488
WIRE -512 1568 -512 1488
FLAG -2304 304 Sine
FLAG -2304 464 0
FLAG 464 208 0
FLAG 608 208 0
FLAG 608 128 V+
FLAG 464 128 V-
FLAG 0 688 0
FLAG -80 464 V+
FLAG -80 752 V-
FLAG -1824 288 V+
FLAG -1824 352 V-
FLAG -1424 144 V+
FLAG -1408 352 V-
FLAG -416 1440 V+
FLAG -416 1504 V-
FLAG -16 1296 V+
FLAG 0 1504 V-
FLAG -512 1568 0
FLAG 0 1056 0
FLAG -80 832 V+
FLAG -80 1120 V-
FLAG 272 608 Vout_V
FLAG 512 976 Vout_I
SYMBOL voltage -2304 352 M0
WINDOW 123 24 124 Left 2
WINDOW 39 0 0 Left 0
SYMATTR Value2 AC 1
SYMATTR InstName V1
SYMATTR Value SINE(0 1 1k)
SYMBOL res -2272 320 M90
WINDOW 0 0 56 VBottom 2
WINDOW 3 32 56 VTop 2
SYMATTR InstName R34
SYMATTR Value 33
SYMBOL res -2128 320 M90
WINDOW 0 0 56 VBottom 2
WINDOW 3 32 56 VTop 2
SYMATTR InstName R33
SYMATTR Value 33
SYMBOL res -2000 320 M90
WINDOW 0 0 56 VBottom 2
WINDOW 3 32 56 VTop 2
SYMATTR InstName R64
SYMATTR Value 33
SYMBOL res -672 528 R0
SYMATTR InstName RLoad
SYMATTR Value 1
SYMBOL voltage 464 112 R0
WINDOW 123 0 0 Left 0
WINDOW 39 0 0 Left 0
SYMATTR InstName V2
SYMATTR Value -5
SYMBOL voltage 608 112 R0
WINDOW 123 0 0 Left 0
WINDOW 39 0 0 Left 0
SYMATTR InstName V3
SYMATTR Value 5
SYMBOL OpAmps\\LT6370 -80 608 R0
SYMATTR InstName U2
SYMBOL res -224 544 R0
SYMATTR InstName R2
SYMATTR Value 6k
SYMBOL OpAmps\\AD8067 -1824 256 R0
SYMATTR InstName U3
SYMBOL res -1712 16 R90
WINDOW 0 0 56 VBottom 2
WINDOW 3 32 56 VTop 2
SYMATTR InstName R1
SYMATTR Value 100
SYMATTR SpiceLine tol=1
SYMBOL OpAmps\\LT1010 -1408 256 R0
SYMATTR InstName U4
SYMBOL res -1456 304 R90
WINDOW 0 0 56 VBottom 2
WINDOW 3 32 56 VTop 2
SYMATTR InstName R3
SYMATTR Value 10
SYMBOL res -1408 176 R0
SYMATTR InstName R4
SYMATTR Value 25
SYMBOL OpAmps\\AD8067 -416 1408 R0
SYMATTR InstName U1
SYMBOL res -304 1168 R90
WINDOW 0 0 56 VBottom 2
WINDOW 3 32 56 VTop 2
SYMATTR InstName R6
SYMATTR Value 100
SYMATTR SpiceLine tol=1
SYMBOL OpAmps\\LT1010 0 1408 R0
SYMATTR InstName U5
SYMBOL res -48 1456 R90
WINDOW 0 0 56 VBottom 2
WINDOW 3 32 56 VTop 2
SYMATTR InstName R7
SYMATTR Value 10
SYMBOL res 0 1328 R0
SYMATTR InstName R8
SYMATTR Value 25
SYMBOL OpAmps\\LT6370 -80 976 R0
SYMATTR InstName U6
SYMBOL res -224 912 R0
SYMATTR InstName R5
SYMATTR Value 6k
SYMBOL res -928 304 R90
WINDOW 0 0 56 VBottom 2
WINDOW 3 32 56 VTop 2
SYMATTR InstName R9
SYMATTR Value 100
TEXT 736 640 Left 2 !.ac oct 100 100 100k
TEXT 768 672 Left 2 !;tran 10m uic
